@<TRIPOS>MOLECULE
UNL
   47    49     1     0     0
SMALL
bcc


@<TRIPOS>ATOM
      1 N           -5.5530     0.0280     0.0170 na         1 UNL      -0.289000
      2 C           -4.7120     1.0620     0.1910 ca         1 UNL       0.449800
      3 C1          -3.4670     0.5910     0.4470 ca         1 UNL      -0.227200
      4 N1          -3.4760    -0.7540     0.4570 nc         1 UNL      -0.551100
      5 C2          -4.7720    -1.0700     0.1850 cd         1 UNL       0.425700
      6 C3          -2.4120     1.4840     0.6260 ca         1 UNL       0.761200
      7 N2          -2.6920     2.8170     0.5380 nb         1 UNL      -0.796000
      8 C4          -3.9620     3.2690     0.2800 ca         1 UNL       0.687900
      9 N3          -4.9890     2.3840     0.0990 nb         1 UNL      -0.753000
     10 H           -4.1490     4.3320     0.2110 h5         1 UNL       0.050100
     11 N4          -1.0910     1.0410     0.8710 nh         1 UNL      -0.956500
     12 C5          -6.9780     0.1050    -0.3390 c3         1 UNL       0.225800
     13 H1          -5.1290    -2.0880     0.1030 h5         1 UNL       0.086800
     14 H2          -0.8700     0.0370     0.9270 hn         1 UNL       0.447800
     15 H3          -0.3290     1.7260     0.9810 hn         1 UNL       0.447800
     16 C6          -7.8150     0.7010     0.8060 c3         1 UNL       0.121100
     17 C7          -8.2120    -0.5700     1.5090 c3         1 UNL       0.135100
     18 C8          -8.5350    -1.4350     0.2910 c3         1 UNL       0.072100
     19 O           -7.4870    -1.1940    -0.6260 os         1 UNL      -0.406600
     20 O1          -8.9660     1.3190     0.2820 oh         1 UNL      -0.559800
     21 O2          -9.2980    -0.3850     2.3780 oh         1 UNL      -0.571800
     22 C9          -8.6580    -2.9330     0.6090 c3         1 UNL       0.168400
     23 O3          -9.8470    -3.1740     1.3290 os         1 UNL      -0.631200
     24 P           -9.7790    -4.7390     2.1300 p5         1 UNL       1.778500
     25 O4          -8.5650    -5.5400     1.5800 o          1 UNL      -0.801300
     26 O5         -11.2030    -5.7240     1.8220 os         1 UNL      -0.712800
     27 O6          -9.4720    -4.4830     3.8210 oh         1 UNL      -0.827400
     28 P1         -11.5930    -6.5720     3.3050 p5         1 UNL       1.930500
     29 O7         -10.2910    -7.1740     3.9030 o          1 UNL      -0.891300
     30 O8         -12.7240    -7.9010     3.1450 os         1 UNL      -0.798800
     31 O9         -12.2050    -5.4620     4.4900 oh         1 UNL      -0.784400
     32 P2         -12.2740    -8.8370     1.7420 p5         1 UNL       1.824500
     33 O10        -11.3950    -9.5390     2.8130 o          1 UNL      -0.795300
     34 O11        -12.7140   -10.5100     1.5490 oh         1 UNL      -0.783900
     35 O12        -13.9420    -9.1010     2.1720 oh         1 UNL      -0.783900
     36 H4          -7.0530     0.7460    -1.2450 h2         1 UNL       0.102700
     37 H5          -7.2870     1.4280     1.4670 h1         1 UNL       0.077700
     38 H6          -7.3170    -0.9660     2.0490 h1         1 UNL       0.066700
     39 H7          -9.4810    -1.1050    -0.1990 h1         1 UNL       0.080700
     40 H8          -8.6750     2.1970    -0.0780 ho         1 UNL       0.413000
     41 H9          -9.3220    -1.1790     2.9720 ho         1 UNL       0.417000
     42 H10         -7.7420    -3.2350     1.1670 h1         1 UNL       0.066200
     43 H11         -8.7170    -3.4890    -0.3520 h1         1 UNL       0.066200
     44 H12        -10.0880    -3.7490     4.0750 ho         1 UNL       0.484000
     45 H13        -13.0840    -5.1800     4.1300 ho         1 UNL       0.524000
     46 H14        -12.7640   -10.6580     0.5690 ho         1 UNL       0.505500
     47 H15        -14.4770    -8.7160     1.4290 ho         1 UNL       0.505500
@<TRIPOS>BOND
     1     1     2 1   
     2     1     5 1   
     3     1    12 1   
     4     2     3 ar  
     5     2     9 ar  
     6     3     4 1   
     7     3     6 ar  
     8     4     5 2   
     9     5    13 1   
    10     6     7 ar  
    11     6    11 1   
    12     7     8 ar  
    13     8     9 ar  
    14     8    10 1   
    15    11    14 1   
    16    11    15 1   
    17    12    16 1   
    18    12    19 1   
    19    12    36 1   
    20    16    17 1   
    21    16    20 1   
    22    16    37 1   
    23    17    18 1   
    24    17    21 1   
    25    17    38 1   
    26    18    19 1   
    27    18    22 1   
    28    18    39 1   
    29    20    40 1   
    30    21    41 1   
    31    22    23 1   
    32    22    42 1   
    33    22    43 1   
    34    23    24 1   
    35    24    25 2   
    36    24    26 1   
    37    24    27 1   
    38    26    28 1   
    39    27    44 1   
    40    28    29 2   
    41    28    30 1   
    42    28    31 1   
    43    30    32 1   
    44    31    45 1   
    45    32    33 2   
    46    32    34 1   
    47    32    35 1   
    48    34    46 1   
    49    35    47 1   
@<TRIPOS>SUBSTRUCTURE
     1 UNL         1 TEMP              0 ****  ****    0 ROOT
